test/TEST190523/v_h24.csv
Bus, BasekV, Node1, Magnitude1, Angle1, pu1, Node2, Magnitude2, Angle2, pu2, Node3, Magnitude3, Angle3, pu3
"SOURCEBUS", 69, 1,    41833.5,   -0.2,    1.0501, 2,    41823.2, -120.2,    1.0499, 3,    41805.3,  119.8,    1.0494
"BUSMVMAI1", 12.8, 1,    7762.78,  -30.5,    1.0504, 2,    7764.91, -150.6,    1.0507, 3,    7751.47,   89.3,    1.0489
"BUSMVMAI136", 12.505, 1,    7762.78,  -30.5,    1.0752, 2,    7764.87, -150.6,    1.0755, 3,    7751.43,   89.3,    1.0736
"BUSMVMAI3", 12.505, 1,    7759.99,  -30.9,    1.0748, 2,    7734.14, -150.9,    1.0712, 3,    7717.43,   88.6,    1.0689
"BUSMVMAI2", 12.505, 1,    7759.98,  -30.9,    1.0748, 2,    7734.06, -150.9,    1.0712, 3,    7717.34,   88.6,    1.0689
"BUSMVMAI4", 12.505, 1,    7759.91,  -30.9,    1.0748, 2,    7733.19, -150.9,    1.0711, 3,    7716.39,   88.6,    1.0688
"BUSMVMAI46", 12.505, 1,    7759.99,  -30.9,    1.0748, 2,    7734.18, -150.9,    1.0712, 3,    7717.47,   88.6,    1.0689
"BUSMVMAI5", 12.505, 1,    7759.58,  -30.9,    1.0747, 2,    7732.14, -150.9,    1.0709, 3,    7715.26,   88.6,    1.0686
"BUSMVMAI862", 12.505, 1,     7759.9,  -30.9,    1.0748, 0, 0, 0, 0, 0, 0, 0, 0
"BUSMVMAI6", 12.505, 1,    7759.52,  -30.9,    1.0747, 2,    7731.95, -150.9,    1.0709, 3,    7715.06,   88.6,    1.0686
"BUSMVMAI859", 12.505, 3,    7715.24,   88.6,    1.0686, 0, 0, 0, 0, 0, 0, 0, 0
"BUSMVMAI860", 12.505, 3,    7715.26,   88.6,    1.0686, 0, 0, 0, 0, 0, 0, 0, 0
"BUSMVMAI7", 12.505, 1,    7759.04,  -30.9,    1.0747, 2,    7731.08, -150.9,    1.0708, 3,    7714.08,   88.6,    1.0684
"BUSMVMAI8", 12.505, 1,    7759.27,  -30.9,    1.0747, 2,    7729.74, -150.9,    1.0706, 3,    7713.46,   88.6,    1.0683
"BUSMVMAI9", 12.505, 1,    7759.04,  -30.9,    1.0747, 2,    7731.08, -150.9,    1.0708, 3,    7714.08,   88.6,    1.0684
"BUSMVMAI10", 12.505, 1,    7758.68,  -30.9,    1.0746, 2,    7731.08, -150.9,    1.0708, 3,    7713.77,   88.6,    1.0684
"BUSMVMAI56", 12.505, 1,    7758.86,  -30.9,    1.0746, 2,    7731.08, -150.9,    1.0708, 3,    7713.92,   88.6,    1.0684
"BUSMVMAI861", 12.505, 3,    7715.19,   88.6,    1.0686, 0, 0, 0, 0, 0, 0, 0, 0
"BUSMVMAI12", 12.505, 1,    7759.45,  -30.9,    1.0747, 2,    7728.64, -150.9,    1.0704, 3,    7712.96,   88.6,    1.0683
"BUSMVMAI51", 12.505, 1,    7759.27,  -30.9,    1.0747, 2,    7729.74, -150.9,    1.0706, 3,    7713.46,   88.6,    1.0683
"BUSMVMAI2171", 12.505, 1,    7759.26,  -30.9,    1.0747, 0, 0, 0, 0, 0, 0, 0, 0
"BUSMVMAI863", 12.505, 3,    7715.15,   88.6,    1.0686, 0, 0, 0, 0, 0, 0, 0, 0
"BUSMVMAI2165", 12.505, 3,    7714.08,   88.6,    1.0684, 0, 0, 0, 0, 0, 0, 0, 0
"BUSMVMAI694", 12.505, 1,    7759.04,  -30.9,    1.0747, 2,    7731.08, -150.9,    1.0708, 3,    7714.07,   88.6,    1.0684
"BUSMVMAI122", 12.505, 1,    7758.66,  -30.9,    1.0746, 2,    7731.08, -150.9,    1.0708, 3,    7713.75,   88.6,    1.0684
"BUSMVMAI11", 12.505, 1,    7759.45,  -30.9,    1.0747, 2,    7728.63, -150.9,    1.0704, 3,    7712.96,   88.6,    1.0683
"BUSMVMAI13", 12.505, 1,    7759.45,  -30.9,    1.0747, 2,    7728.62, -150.9,    1.0704, 3,    7712.96,   88.6,    1.0683
"BUSMVMAI18", 12.505, 1,    7759.52,  -30.9,    1.0747, 2,    7728.24, -150.9,    1.0704, 3,    7712.76,   88.6,    1.0682
"BUSMVMAI14", 12.505, 1,    7759.45,  -30.9,    1.0747, 2,    7728.59, -150.9,    1.0704, 3,    7712.97,   88.6,    1.0683
"BUSMVMAI15", 12.505, 1,    7759.45,  -30.9,    1.0747, 2,    7728.56, -150.9,    1.0704, 3,    7712.98,   88.6,    1.0683
"BUSMVMAI16", 12.505, 1,    7759.45,  -30.9,    1.0747, 2,    7728.55, -150.9,    1.0704, 3,    7712.97,   88.6,    1.0683
"BUSMVMAI2166", 12.505, 2,    7728.55, -150.9,    1.0704, 0, 0, 0, 0, 0, 0, 0, 0
"BUSMVMAI2172", 12.505, 1,     7759.9,  -30.9,    1.0748, 0, 0, 0, 0, 0, 0, 0, 0
"BUSMVMAI864", 12.505, 3,    7715.12,   88.6,    1.0686, 0, 0, 0, 0, 0, 0, 0, 0
"BUSMVMAI865", 12.505, 3,    7715.08,   88.6,    1.0686, 0, 0, 0, 0, 0, 0, 0, 0
"BUSMVMAI17", 12.505, 1,    7759.45,  -30.9,    1.0747, 2,    7728.55, -150.9,    1.0704, 3,    7712.97,   88.6,    1.0683
"BUSMVMAI695", 12.505, 1,    7759.45,  -30.9,    1.0747, 2,    7728.55, -150.9,    1.0704, 3,    7712.97,   88.6,    1.0683
"BUSMVMAI866", 12.505, 3,    7715.08,   88.6,    1.0686, 0, 0, 0, 0, 0, 0, 0, 0
"BUSMVMAI2176", 12.505, 3,    7715.08,   88.6,    1.0686, 0, 0, 0, 0, 0, 0, 0, 0
"BUSMVMAI2177", 12.505, 3,    7715.08,   88.6,    1.0686, 0, 0, 0, 0, 0, 0, 0, 0
"BUSMVMAI2178", 12.505, 3,    7715.05,   88.6,    1.0686, 0, 0, 0, 0, 0, 0, 0, 0
"BUSMVMAI19", 12.505, 1,    7759.66,  -30.9,    1.0747, 2,    7727.51, -150.9,    1.0703, 3,    7712.42,   88.5,    1.0682
"BUSMVMAI20", 12.505, 1,    7759.85,  -30.9,    1.0748, 2,    7726.49, -150.9,    1.0702, 3,    7711.93,   88.5,    1.0681
"BUSMVMAI53", 12.505, 1,    7759.66,  -30.9,    1.0747, 2,    7727.51, -150.9,    1.0703, 3,    7712.42,   88.5,    1.0682
"BUSMVMAI21", 12.505, 1,    7760.06,  -30.9,    1.0748, 2,    7725.41, -151.0,      1.07, 3,    7711.42,   88.5,    1.0681
"BUSMVMAI22", 12.505, 1,    7760.29,  -30.9,    1.0748, 2,    7724.15, -151.0,    1.0698, 3,    7710.84,   88.5,     1.068
"BUSMVMAI23", 12.505, 1,    7760.06,  -30.9,    1.0748, 2,    7725.41, -151.0,      1.07, 3,    7711.42,   88.5,    1.0681
"BUSMVMAI25", 12.505, 1,    7760.53,  -30.9,    1.0749, 2,    7722.85, -151.0,    1.0696, 3,    7710.24,   88.5,    1.0679
"BUSMVMAI52", 12.505, 1,    7760.29,  -30.9,    1.0748, 2,    7724.15, -151.0,    1.0698, 3,    7710.84,   88.5,     1.068
"BUSMVMAI54", 12.505, 1,    7760.29,  -30.9,    1.0748, 2,    7724.15, -151.0,    1.0698, 3,    7710.84,   88.5,     1.068
"BUSMVMAI55", 12.505, 1,    7760.29,  -30.9,    1.0748, 2,    7724.15, -151.0,    1.0698, 3,    7710.84,   88.5,     1.068
"BUSMVMAI696", 12.505, 1,    7760.06,  -30.9,    1.0748, 2,    7725.42, -151.0,      1.07, 3,    7711.42,   88.5,    1.0681
"BUSMVMAI24", 12.505, 1,    7760.56,  -30.9,    1.0749, 2,    7722.72, -151.0,    1.0696, 3,    7710.19,   88.5,    1.0679
"BUSMVMAI26", 12.505, 1,    7760.79,  -30.9,    1.0749, 2,    7721.42, -151.0,    1.0694, 3,     7709.6,   88.5,    1.0678
"BUSMVMAI49", 12.505, 1,    7760.53,  -30.9,    1.0749, 2,    7722.85, -151.0,    1.0696, 3,    7710.24,   88.5,    1.0679
"BUSMVMAI50", 12.505, 1,    7760.53,  -30.9,    1.0749, 2,    7722.85, -151.0,    1.0696, 3,    7710.24,   88.5,    1.0679
"BUSMVMAI27", 12.505, 1,    7760.79,  -30.9,    1.0749, 2,    7721.43, -151.0,    1.0694, 3,    7709.59,   88.5,    1.0678
"BUSMVMAI28", 12.505, 1,    7760.98,  -30.9,    1.0749, 2,    7720.42, -151.0,    1.0693, 3,    7709.15,   88.5,    1.0677
"BUSMVMAI29", 12.505, 1,    7760.78,  -30.9,    1.0749, 2,    7721.43, -151.0,    1.0695, 3,    7709.59,   88.5,    1.0678
"BUSMVMAI31", 12.505, 1,     7761.2,  -30.9,     1.075, 2,    7719.27, -151.0,    1.0692, 3,    7708.64,   88.4,    1.0677
"BUSMVMAI30", 12.505, 1,    7760.77,  -30.9,    1.0749, 2,    7721.44, -151.0,    1.0695, 3,    7709.58,   88.5,    1.0678
"BUSMVMAI34", 12.505, 1,    7760.77,  -30.9,    1.0749, 2,    7721.44, -151.0,    1.0695, 3,    7709.57,   88.5,    1.0678
"BUSMVMAI867", 12.505, 1,    7761.16,  -30.9,     1.075, 0, 0, 0, 0, 0, 0, 0, 0
"BUSMVMAI43", 12.505, 1,     7761.2,  -30.9,     1.075, 2,    7719.24, -151.0,    1.0691, 3,    7708.62,   88.4,    1.0677
"BUSMVMAI871", 12.505, 2,    7719.27, -151.0,    1.0692, 0, 0, 0, 0, 0, 0, 0, 0
"BUSMVMAI33", 12.505, 1,    7761.27,  -30.9,     1.075, 2,    7718.91, -151.0,    1.0691, 3,    7708.48,   88.4,    1.0677
"BUSMVMAI32", 12.505, 1,    7761.47,  -30.9,     1.075, 2,    7717.91, -151.0,     1.069, 3,    7708.06,   88.4,    1.0676
"BUSMVMAI37", 12.505, 1,    7761.74,  -30.9,     1.075, 2,    7716.54, -151.0,    1.0688, 3,    7707.48,   88.4,    1.0675
"BUSMVMAI44", 12.505, 1,    7761.21,  -30.9,     1.075, 2,    7719.21, -151.0,    1.0691, 3,    7708.61,   88.4,    1.0677
"BUSMVMAI35", 12.505, 1,    7760.77,  -30.9,    1.0749, 2,    7721.44, -151.0,    1.0695, 3,    7709.56,   88.5,    1.0678
"BUSMVMAI36", 12.505, 1,    7760.77,  -30.9,    1.0749, 2,    7721.44, -151.0,    1.0695, 3,    7709.56,   88.5,    1.0678
"BUSMVMAI869", 12.505, 1,    7761.16,  -30.9,     1.075, 0, 0, 0, 0, 0, 0, 0, 0
"BUSMVMAI38", 12.505, 1,    7761.96,  -30.9,    1.0751, 2,    7715.45, -151.0,    1.0686, 3,    7707.03,   88.4,    1.0675
"BUSMVMAI2181", 12.505, 1,    7761.73,  -30.9,     1.075, 0, 0, 0, 0, 0, 0, 0, 0
"BUSMVMAI868", 12.505, 1,     7761.1,  -30.9,    1.0749, 0, 0, 0, 0, 0, 0, 0, 0
"BUSMVMAI870", 12.505, 1,    7761.04,  -30.9,    1.0749, 0, 0, 0, 0, 0, 0, 0, 0
"BUSMVMAI39", 12.505, 1,    7761.97,  -30.9,    1.0751, 2,    7715.44, -151.0,    1.0686, 3,       7707,   88.4,    1.0675
"BUSMVMAI40", 12.505, 1,    7762.14,  -30.9,    1.0751, 2,    7714.38, -151.0,    1.0685, 3,    7706.62,   88.4,    1.0674
"BUSMVMAI697", 12.505, 1,    7761.99,  -30.9,    1.0751, 2,    7715.45, -151.0,    1.0686, 3,     7706.9,   88.4,    1.0674
"BUSMVMAI41", 12.505, 1,    7762.36,  -31.0,    1.0751, 2,    7713.16, -151.0,    1.0683, 3,    7706.13,   88.4,    1.0673
"BUSMVMAI42", 12.505, 1,    7762.37,  -31.0,    1.0751, 2,    7713.16, -151.0,    1.0683, 3,    7706.12,   88.4,    1.0673
"BUSMVMAI48", 12.505, 1,    7762.54,  -31.0,    1.0751, 2,    7712.14, -151.0,    1.0682, 3,    7705.74,   88.3,    1.0673
"BUSMVMAI303", 12.505, 1,    7762.45,  -31.0,    1.0751, 2,    7712.65, -151.0,    1.0682, 3,    7705.93,   88.4,    1.0673
"BUSMVMAI45", 12.505, 1,    7762.37,  -31.0,    1.0751, 2,    7713.15, -151.0,    1.0683, 3,    7706.11,   88.4,    1.0673
"BUSMVMAI701", 12.505, 1,    7762.38,  -31.0,    1.0751, 2,    7713.15, -151.0,    1.0683, 3,     7706.1,   88.4,    1.0673
"BUSMVMAI47", 12.505, 1,    7760.02,  -30.9,    1.0748, 2,    7734.56, -150.9,    1.0713, 3,    7717.89,   88.7,     1.069
"BUSMVMAI179", 12.505, 1,    7760.01,  -30.9,    1.0748, 2,    7734.37, -150.9,    1.0712, 3,    7717.68,   88.7,    1.0689
"BUSMVMAI160", 12.505, 1,     7760.1,  -30.9,    1.0748, 2,    7735.47, -150.9,    1.0714, 3,    7718.89,   88.7,    1.0691
"BUSMVMAI1103", 12.505, 1,     7762.5,  -31.0,    1.0751, 0, 0, 0, 0, 0, 0, 0, 0
"BUSMVMAI259", 12.505, 1,    7762.65,  -31.0,    1.0752, 2,    7711.62, -151.0,    1.0681, 3,    7705.56,   88.3,    1.0673
"BUSMVMAI304", 12.505, 1,    7762.54,  -31.0,    1.0751, 2,    7712.14, -151.0,    1.0682, 3,    7705.74,   88.3,    1.0673
"BUSMVMAI702", 12.505, 1,    7760.53,  -30.9,    1.0749, 2,    7722.85, -151.0,    1.0696, 3,    7710.24,   88.5,    1.0679
"BUSMVMAI58", 12.505, 1,    7758.43,  -30.9,    1.0746, 2,    7731.08, -150.9,    1.0708, 3,    7713.56,   88.6,    1.0684
"BUSMVMAI57", 12.505, 1,    7757.58,  -30.9,    1.0745, 2,    7731.07, -150.9,    1.0708, 3,    7712.83,   88.6,    1.0683
"BUSMVMAI60", 12.505, 1,    7757.22,  -30.9,    1.0744, 2,    7731.08, -150.9,    1.0708, 3,    7712.54,   88.6,    1.0682
"BUSMVMAI703", 12.505, 1,    7757.58,  -30.9,    1.0745, 2,    7731.08, -150.9,    1.0708, 3,    7712.82,   88.6,    1.0683
"BUSMVMAI123", 12.505, 1,    7758.64,  -30.9,    1.0746, 2,    7731.08, -150.9,    1.0708, 3,    7713.74,   88.6,    1.0684
"BUSMVMAI59", 12.505, 1,     7756.7,  -30.9,    1.0743, 2,     7731.1, -150.9,    1.0708, 3,    7712.22,   88.6,    1.0682
"BUSMVMAI61", 12.505, 1,    7755.85,  -30.9,    1.0742, 2,    7731.14, -150.9,    1.0708, 3,    7711.68,   88.6,    1.0681
"BUSMVMAI63", 12.505, 1,    7757.24,  -30.9,    1.0744, 2,    7731.06, -150.9,    1.0708, 3,    7712.49,   88.6,    1.0682
"BUSMVMAI874", 12.505, 3,    7712.54,   88.6,    1.0682, 0, 0, 0, 0, 0, 0, 0, 0
"BUSMVMAI62", 12.505, 1,    7754.99,  -30.9,    1.0741, 2,    7731.15, -150.9,    1.0708, 3,    7711.14,   88.6,     1.068
"BUSMVMAI64", 12.505, 1,    7754.05,  -30.9,     1.074, 2,     7731.2, -150.9,    1.0708, 3,    7710.72,   88.6,     1.068
"BUSMVMAI942", 12.505, 3,    7711.13,   88.6,     1.068, 0, 0, 0, 0, 0, 0, 0, 0
"BUSMVMAI873", 12.505, 3,    7711.13,   88.6,     1.068, 0, 0, 0, 0, 0, 0, 0, 0
"BUSMVMAI872", 12.505, 3,    7710.93,   88.6,     1.068, 0, 0, 0, 0, 0, 0, 0, 0
"BUSMVMAI880", 12.505, 3,    7710.93,   88.6,     1.068, 0, 0, 0, 0, 0, 0, 0, 0
"BUSMVMAI945", 12.505, 3,    7712.48,   88.6,    1.0682, 0, 0, 0, 0, 0, 0, 0, 0
"BUSMVMAI65", 12.505, 1,    7753.06,  -31.0,    1.0738, 2,    7731.21, -150.9,    1.0708, 3,    7710.26,   88.6,    1.0679
"BUSMVMAI66", 12.505, 1,    7752.07,  -31.0,    1.0737, 2,    7731.23, -150.9,    1.0708, 3,     7709.8,   88.6,    1.0678
"BUSMVMAI67", 12.505, 1,    7750.99,  -31.0,    1.0735, 2,    7731.24, -150.9,    1.0708, 3,     7709.3,   88.6,    1.0678
"BUSMVMAI878", 12.505, 1,    7750.93,  -31.0,    1.0735, 0, 0, 0, 0, 0, 0, 0, 0
"BUSMVMAI68", 12.505, 1,     7750.2,  -31.0,    1.0734, 2,    7731.23, -150.9,    1.0708, 3,    7708.93,   88.6,    1.0677
"BUSMVMAI706", 12.505, 1,    7750.99,  -31.0,    1.0735, 2,    7731.24, -150.9,    1.0708, 3,     7709.3,   88.6,    1.0678
"BUSMVMAI876", 12.505, 3,    7712.48,   88.6,    1.0682, 0, 0, 0, 0, 0, 0, 0, 0
"BUSMVMAI875", 12.505, 3,    7712.32,   88.6,    1.0682, 0, 0, 0, 0, 0, 0, 0, 0
"BUSMVMAI877", 12.505, 3,    7712.27,   88.6,    1.0682, 0, 0, 0, 0, 0, 0, 0, 0
"BUSMVMAI883", 12.505, 3,    7712.14,   88.6,    1.0682, 0, 0, 0, 0, 0, 0, 0, 0
"BUSMVMAI884", 12.505, 3,    7712.26,   88.6,    1.0682, 0, 0, 0, 0, 0, 0, 0, 0
"BUSMVMAI886", 12.505, 3,    7712.26,   88.6,    1.0682, 0, 0, 0, 0, 0, 0, 0, 0
"BUSMVMAI885", 12.505, 1,    7750.84,  -31.0,    1.0735, 0, 0, 0, 0, 0, 0, 0, 0
"BUSMVMAI879", 12.505, 3,    7710.66,   88.6,     1.068, 0, 0, 0, 0, 0, 0, 0, 0
"BUSMVMAI881", 12.505, 3,    7710.62,   88.6,     1.068, 0, 0, 0, 0, 0, 0, 0, 0
"BUSMVMAI888", 12.505, 3,    7710.61,   88.6,     1.068, 0, 0, 0, 0, 0, 0, 0, 0
"BUSMVMAI882", 12.505, 3,    7710.59,   88.6,    1.0679, 0, 0, 0, 0, 0, 0, 0, 0
"BUSMVMAI944", 12.505, 3,    7710.59,   88.6,    1.0679, 0, 0, 0, 0, 0, 0, 0, 0
"BUSMVMAI889", 12.505, 3,    7712.03,   88.6,    1.0681, 0, 0, 0, 0, 0, 0, 0, 0
"BUSMVMAI2183", 12.505, 3,    7712.25,   88.6,    1.0682, 0, 0, 0, 0, 0, 0, 0, 0
"BUSMVMAI2184", 12.505, 3,    7712.25,   88.6,    1.0682, 0, 0, 0, 0, 0, 0, 0, 0
"BUSMVMAI71", 12.505, 1,    7749.44,  -31.0,    1.0733, 2,     7731.2, -150.9,    1.0708, 3,    7708.57,   88.6,    1.0677
"BUSMVMAI2182", 12.505, 1,    7750.83,  -31.0,    1.0735, 0, 0, 0, 0, 0, 0, 0, 0
"BUSMVMAI2185", 12.505, 1,    7750.83,  -31.0,    1.0735, 0, 0, 0, 0, 0, 0, 0, 0
"BUSMVMAI2186", 12.505, 1,    7750.79,  -31.0,    1.0735, 0, 0, 0, 0, 0, 0, 0, 0
"BUSMVMAI887", 12.505, 3,    7712.24,   88.6,    1.0682, 0, 0, 0, 0, 0, 0, 0, 0
"BUSMVMAI892", 12.505, 3,    7712.24,   88.6,    1.0682, 0, 0, 0, 0, 0, 0, 0, 0
"BUSMVMAI897", 12.505, 3,    7710.56,   88.6,    1.0679, 0, 0, 0, 0, 0, 0, 0, 0
"BUSMVMAI890", 12.505, 3,    7711.93,   88.6,    1.0681, 0, 0, 0, 0, 0, 0, 0, 0
"BUSMVMAI891", 12.505, 3,    7711.87,   88.6,    1.0681, 0, 0, 0, 0, 0, 0, 0, 0
"BUSMVMAI896", 12.505, 3,    7711.84,   88.6,    1.0681, 0, 0, 0, 0, 0, 0, 0, 0
"BUSMVMAI893", 12.505, 3,    7712.23,   88.6,    1.0682, 0, 0, 0, 0, 0, 0, 0, 0
"BUSMVMAI894", 12.505, 3,    7712.22,   88.6,    1.0682, 0, 0, 0, 0, 0, 0, 0, 0
"BUSMVMAI895", 12.505, 3,    7712.21,   88.6,    1.0682, 0, 0, 0, 0, 0, 0, 0, 0
"BUSMVMAI898", 12.505, 3,    7712.21,   88.6,    1.0682, 0, 0, 0, 0, 0, 0, 0, 0
"BUSMVMAI70", 12.505, 1,    7750.99,  -31.0,    1.0735, 2,    7731.25, -150.9,    1.0708, 3,    7709.28,   88.6,    1.0678
"BUSMVMAI69", 12.505, 1,       7751,  -31.0,    1.0735, 2,    7731.25, -150.9,    1.0708, 3,    7709.27,   88.6,    1.0678
"BUSMVMAI708", 12.505, 1,    7750.99,  -31.0,    1.0735, 2,    7731.25, -150.9,    1.0708, 3,    7709.28,   88.6,    1.0678
"BUSMVMAI72", 12.505, 1,    7748.43,  -31.0,    1.0732, 2,    7731.16, -150.9,    1.0708, 3,     7708.1,   88.6,    1.0676
"BUSMVMAI73", 12.505, 1,    7747.47,  -31.0,    1.0731, 2,    7731.13, -150.9,    1.0708, 3,     7707.7,   88.6,    1.0675
"BUSMVMAI134", 12.505, 1,    7748.43,  -31.0,    1.0732, 2,    7731.16, -150.9,    1.0708, 3,     7708.1,   88.6,    1.0676
"BUSMVMAI900", 12.505, 3,     7710.5,   88.6,    1.0679, 0, 0, 0, 0, 0, 0, 0, 0
"BUSMVMAI904", 12.505, 3,    7712.21,   88.6,    1.0682, 0, 0, 0, 0, 0, 0, 0, 0
"BUSMVMAI75", 12.505, 1,    7747.01,  -31.0,     1.073, 2,    7731.16, -150.9,    1.0708, 3,     7707.5,   88.6,    1.0675
"BUSMVMAI718", 12.505, 1,    7747.47,  -31.0,    1.0731, 2,    7731.13, -150.9,    1.0708, 3,     7707.7,   88.6,    1.0675
"BUSMVMAI899", 12.505, 3,     7710.5,   88.6,    1.0679, 0, 0, 0, 0, 0, 0, 0, 0
"BUSMVMAI902", 12.505, 3,    7710.48,   88.6,    1.0679, 0, 0, 0, 0, 0, 0, 0, 0
"BUSMVMAI901", 12.505, 3,    7710.45,   88.6,    1.0679, 0, 0, 0, 0, 0, 0, 0, 0
"BUSMVMAI903", 12.505, 3,    7710.42,   88.6,    1.0679, 0, 0, 0, 0, 0, 0, 0, 0
"BUSMVMAI905", 12.505, 3,    7710.38,   88.6,    1.0679, 0, 0, 0, 0, 0, 0, 0, 0
"BUSMVMAI907", 12.505, 3,    7710.42,   88.6,    1.0679, 0, 0, 0, 0, 0, 0, 0, 0
"BUSMVMAI906", 12.505, 3,    7710.37,   88.6,    1.0679, 0, 0, 0, 0, 0, 0, 0, 0
"BUSMVMAI946", 12.505, 3,    7710.37,   88.6,    1.0679, 0, 0, 0, 0, 0, 0, 0, 0
"BUSMVMAI74", 12.505, 1,    7747.01,  -31.0,     1.073, 2,    7731.16, -150.9,    1.0708, 3,     7707.5,   88.6,    1.0675
"BUSMVMAI76", 12.505, 1,    7746.92,  -31.0,     1.073, 2,    7731.22, -150.9,    1.0708, 3,    7707.46,   88.6,    1.0675
"BUSMVMAI77", 12.505, 1,    7746.74,  -31.0,     1.073, 2,    7731.14, -150.9,    1.0708, 3,    7707.39,   88.6,    1.0675
"BUSMVMAI79", 12.505, 1,    7746.91,  -31.0,     1.073, 2,    7731.23, -150.9,    1.0708, 3,    7707.46,   88.6,    1.0675
"BUSMVMAI81", 12.505, 1,    7746.73,  -31.0,     1.073, 2,    7731.08, -150.9,    1.0708, 3,    7707.41,   88.6,    1.0675
"BUSMVMAI91", 12.505, 1,    7746.06,  -31.0,    1.0729, 2,    7731.13, -150.9,    1.0708, 3,    7707.08,   88.6,    1.0675
"BUSMVMAI78", 12.505, 1,    7746.76,  -31.0,     1.073, 2,    7731.34, -150.9,    1.0708, 3,    7707.37,   88.6,    1.0675
"BUSMVMAI80", 12.505, 1,     7746.6,  -31.0,    1.0729, 2,    7731.45, -150.9,    1.0708, 3,    7707.29,   88.6,    1.0675
"BUSMVMAI908", 12.505, 1,    7746.52,  -31.0,    1.0729, 0, 0, 0, 0, 0, 0, 0, 0
"BUSMVMAI89", 12.505, 1,    7746.55,  -31.0,    1.0729, 2,    7731.49, -150.9,    1.0708, 3,    7707.25,   88.6,    1.0675
"BUSMVMAI949", 12.505, 3,    7710.42,   88.6,    1.0679, 0, 0, 0, 0, 0, 0, 0, 0
"BUSMVMAI82", 12.505, 1,    7746.71,  -31.0,     1.073, 2,    7731.03, -150.9,    1.0708, 3,    7707.43,   88.6,    1.0675
"BUSMVMAI83", 12.505, 1,    7746.72,  -31.0,     1.073, 2,    7731.02, -150.9,    1.0708, 3,    7707.42,   88.6,    1.0675
"BUSMVMAI86", 12.505, 1,    7746.72,  -31.0,     1.073, 2,       7731, -150.9,    1.0708, 3,    7707.41,   88.6,    1.0675
"BUSMVMAI85", 12.505, 1,    7747.44,  -31.0,    1.0731, 2,    7731.06, -150.9,    1.0708, 3,    7707.68,   88.6,    1.0675
"BUSMVMAI84", 12.505, 1,    7747.39,  -31.0,     1.073, 2,    7730.99, -150.9,    1.0708, 3,    7707.68,   88.6,    1.0675
"BUSMVMAI93", 12.505, 1,    7747.36,  -31.0,     1.073, 2,    7730.96, -150.9,    1.0708, 3,    7707.68,   88.6,    1.0675
"BUSMVMAI2198", 12.505, 2,    7730.99, -150.9,    1.0708, 0, 0, 0, 0, 0, 0, 0, 0
"BUSMVMAI709", 12.505, 1,    7747.47,  -31.0,    1.0731, 2,    7731.13, -150.9,    1.0708, 3,     7707.7,   88.6,    1.0675
"BUSMVMAI88", 12.505, 1,    7746.72,  -31.0,     1.073, 2,    7730.99, -150.9,    1.0708, 3,     7707.4,   88.6,    1.0675
"BUSMVMAI87", 12.505, 1,    7746.73,  -31.0,     1.073, 2,    7730.98, -150.9,    1.0708, 3,    7707.39,   88.6,    1.0675
"BUSMVMAI99", 12.505, 1,    7746.73,  -31.0,     1.073, 2,    7730.97, -150.9,    1.0708, 3,     7707.4,   88.6,    1.0675
"BUSMVMAI722", 12.505, 1,    7746.73,  -31.0,     1.073, 2,    7730.98, -150.9,    1.0708, 3,    7707.39,   88.6,    1.0675
"BUSMVMAI909", 12.505, 1,    7746.45,  -31.0,    1.0729, 0, 0, 0, 0, 0, 0, 0, 0
"BUSMVMAI90", 12.505, 1,    7746.51,  -31.0,    1.0729, 2,    7731.52, -150.9,    1.0708, 3,    7707.21,   88.6,    1.0675
"BUSMVMAI102", 12.505, 1,    7746.47,  -31.0,    1.0729, 2,    7731.56, -150.9,    1.0709, 3,    7707.16,   88.6,    1.0675
"BUSMVMAI92", 12.505, 1,    7745.48,  -31.0,    1.0728, 2,    7731.12, -150.9,    1.0708, 3,    7706.81,   88.6,    1.0674
"BUSMVMAI132", 12.505, 1,    7746.06,  -31.0,    1.0729, 2,    7731.13, -150.9,    1.0708, 3,    7707.08,   88.6,    1.0675
"BUSMVMAI98", 12.505, 1,    7745.48,  -31.0,    1.0728, 2,    7731.12, -150.9,    1.0708, 3,     7706.8,   88.6,    1.0674
"BUSMVMAI100", 12.505, 1,    7744.73,  -31.0,    1.0727, 2,    7731.18, -150.9,    1.0708, 3,    7706.44,   88.6,    1.0674
"BUSMVMAI723", 12.505, 1,    7745.48,  -31.0,    1.0728, 2,    7731.12, -150.9,    1.0708, 3,    7706.81,   88.6,    1.0674
"BUSMVMAI96", 12.505, 1,    7747.33,  -31.0,     1.073, 2,    7730.92, -150.9,    1.0708, 3,    7707.67,   88.6,    1.0675
"BUSMVMAI916", 12.505, 1,    7747.35,  -31.0,     1.073, 0, 0, 0, 0, 0, 0, 0, 0
"BUSMVMAI95", 12.505, 1,    7745.48,  -31.0,    1.0728, 2,    7731.07, -150.9,    1.0708, 3,    7706.81,   88.6,    1.0674
"BUSMVMAI94", 12.505, 1,    7745.46,  -31.0,    1.0728, 2,    7731.02, -150.9,    1.0708, 3,    7706.83,   88.6,    1.0674
"BUSMVMAI112", 12.505, 1,    7745.46,  -31.0,    1.0728, 2,    7731.03, -150.9,    1.0708, 3,    7706.83,   88.6,    1.0674
"BUSMVMAI126", 12.505, 1,    7745.48,  -31.0,    1.0728, 2,    7731.07, -150.9,    1.0708, 3,    7706.81,   88.6,    1.0674
"BUSMVMAI97", 12.505, 1,    7747.29,  -31.0,     1.073, 2,    7730.86, -150.9,    1.0708, 3,    7707.67,   88.6,    1.0675
"BUSMVMAI711", 12.505, 1,    7747.33,  -31.0,     1.073, 2,    7730.92, -150.9,    1.0708, 3,    7707.67,   88.6,    1.0675
"BUSMVMAI915", 12.505, 1,    7747.29,  -31.0,     1.073, 0, 0, 0, 0, 0, 0, 0, 0
...
"BUSLVMAI1", 0.20785, 1,     128.19,   88.6,    1.0682, 2,    128.205,  -91.4,    1.0684, 0, 0, 0, 0
"BUSLVMAI2", 0.20785, 1,    128.086,   88.5,    1.0674, 2,    128.099,  -91.5,    1.0675, 0, 0, 0, 0
"BUSLVMAI3", 0.20785, 1,     128.17,   88.6,    1.0681, 2,    128.186,  -91.4,    1.0682, 0, 0, 0, 0
"BUSLVMAI4", 0.20785, 1,    128.615,  -31.1,    1.0718, 2,    128.679,  148.9,    1.0723, 0, 0, 0, 0
"BUSLVMAI5", 0.20785, 1,    128.065, -151.1,    1.0672, 2,    128.105,   28.9,    1.0675, 0, 0, 0, 0
"BUSLVMAI6", 0.20785, 1,    128.097,   88.5,    1.0675, 2,    128.113,  -91.5,    1.0676, 0, 0, 0, 0
"BUSLVMAI7", 0.20785, 1,    128.195,   88.6,    1.0683, 2,    128.209,  -91.4,    1.0684, 0, 0, 0, 0
"BUSLVMAI8", 0.20785, 1,    127.872,   88.5,    1.0656, 2,    127.889,  -91.5,    1.0657, 0, 0, 0, 0
"BUSLVMAI9", 0.20785, 1,    127.817,   88.3,    1.0651, 2,     127.83,  -91.7,    1.0652, 0, 0, 0, 0
"BUSLVMAI10", 0.20785, 1,    127.822,   88.3,    1.0652, 2,    127.835,  -91.7,    1.0653, 0, 0, 0, 0
"BUSLVMAI11", 0.20785, 1,    128.403, -150.9,      1.07, 2,    128.416,   29.1,    1.0701, 0, 0, 0, 0
"BUSLVMAI12", 0.20785, 1,    128.383, -150.9,    1.0699, 2,    128.398,   29.1,      1.07, 0, 0, 0, 0
"BUSLVMAI13", 0.20785, 1,    128.915,  -30.9,    1.0743, 2,    128.931,  149.1,    1.0744, 0, 0, 0, 0
"BUSLVMAI14", 0.20785, 1,    128.922,  -31.0,    1.0744, 2,    128.938,  149.0,    1.0745, 0, 0, 0, 0
"BUSLVMAI15", 0.20785, 1,    128.908,  -30.9,    1.0742, 2,    128.922,  149.1,    1.0743, 0, 0, 0, 0
"BUSLVMAI16", 0.20785, 1,    128.174,   88.6,    1.0681, 2,    128.192,  -91.4,    1.0683, 0, 0, 0, 0
"BUSLVMAI17", 0.20785, 1,    127.695,   88.3,    1.0641, 2,    127.721,  -91.7,    1.0643, 0, 0, 0, 0
"BUSLVMAI18", 0.20785, 1,    128.128,   88.5,    1.0677, 2,    128.144,  -91.5,    1.0679, 0, 0, 0, 0
"BUSLVMAI19", 0.20785, 1,    128.135,   88.6,    1.0678, 2,    128.148,  -91.4,    1.0679, 0, 0, 0, 0
"BUSLVMAI20", 0.20785, 1,     128.16, -151.0,     1.068, 2,    128.185,   29.0,    1.0682, 0, 0, 0, 0
"BUSLVMAI21", 0.20785, 1,     128.19,   88.6,    1.0683, 2,    128.206,  -91.4,    1.0684, 0, 0, 0, 0
"BUSLVMAI22", 0.20785, 1,    128.869,  -31.0,    1.0739, 2,    128.927,  149.0,    1.0744, 0, 0, 0, 0
"BUSLVMAI23", 0.20785, 1,    128.167,   88.6,    1.0681, 2,    128.183,  -91.4,    1.0682, 0, 0, 0, 0
"BUSLVMAI24", 0.20785, 1,    128.167,   88.6,    1.0681, 2,    128.182,  -91.4,    1.0682, 0, 0, 0, 0
"BUSLVMAI25", 0.20785, 1,    128.136,   88.6,    1.0678, 2,    128.152,  -91.4,    1.0679, 0, 0, 0, 0
"BUSLVMAI26", 0.20785, 1,    128.362, -151.0,    1.0697, 2,    128.377,   29.0,    1.0698, 0, 0, 0, 0
"BUSLVMAI27", 0.20785, 1,    128.416, -150.9,    1.0701, 2,    128.433,   29.1,    1.0703, 0, 0, 0, 0
"BUSLVMAI28", 0.20785, 1,    128.128,   88.5,    1.0677, 2,    128.144,  -91.5,    1.0679, 0, 0, 0, 0
"BUSLVMAI29", 0.20785, 1,    127.932,   88.3,    1.0661, 2,    127.947,  -91.7,    1.0662, 0, 0, 0, 0
"BUSLVMAI30", 0.20785, 1,    128.265, -151.0,    1.0689, 2,    128.279,   29.0,     1.069, 0, 0, 0, 0
"BUSLVMAI31", 0.20785, 1,    128.172,   88.6,    1.0681, 2,    128.188,  -91.4,    1.0682, 0, 0, 0, 0
"BUSLVMAI32", 0.20785, 1,    128.738,  -31.0,    1.0728, 2,    128.751,  149.0,    1.0729, 0, 0, 0, 0
"BUSLVMAI33", 0.20785, 1,    128.116,   88.5,    1.0676, 2,     128.13,  -91.5,    1.0677, 0, 0, 0, 0
"BUSLVMAI34", 0.20785, 1,    127.136,   88.3,    1.0595, 2,    127.209,  -91.7,    1.0601, 0, 0, 0, 0
"BUSLVMAI35", 0.20785, 1,    128.119,   88.6,    1.0677, 2,    128.133,  -91.4,    1.0678, 0, 0, 0, 0
"BUSLVMAI36", 0.20785, 1,    128.118,   88.6,    1.0676, 2,    128.132,  -91.4,    1.0678, 0, 0, 0, 0
"BUSLVMAI37", 0.20785, 1,    128.111,   88.6,    1.0676, 2,    128.126,  -91.4,    1.0677, 0, 0, 0, 0
"BUSLVMAI38", 0.20785, 1,    126.037, -151.5,    1.0503, 2,    126.055,   28.5,    1.0505, 0, 0, 0, 0
"BUSLVMAI39", 0.20785, 1,    128.237, -151.0,    1.0686, 2,     128.25,   28.9,    1.0688, 0, 0, 0, 0
"BUSLVMAI40", 0.20785, 1,    127.859,   88.5,    1.0655, 2,    127.903,  -91.5,    1.0659, 0, 0, 0, 0
"BUSLVMAI41", 0.20785, 1,    128.715,  -31.0,    1.0726, 2,     128.73,  149.0,    1.0728, 0, 0, 0, 0
"BUSLVMAI42", 0.20785, 1,    128.751,  -31.0,    1.0729, 2,    128.767,  149.0,    1.0731, 0, 0, 0, 0
"BUSLVMAI43", 0.20785, 1,    128.729,  -31.0,    1.0727, 2,    128.745,  149.0,    1.0729, 0, 0, 0, 0
"BUSLVMAI44", 0.20785, 1,    127.979,   88.6,    1.0665, 2,    128.009,  -91.4,    1.0667, 0, 0, 0, 0
"BUSLVMAI45", 0.20785, 1,    127.988,   88.6,    1.0666, 2,    128.002,  -91.5,    1.0667, 0, 0, 0, 0
"BUSLVMAI46", 0.20785, 1,    128.066,   88.6,    1.0672, 2,    128.081,  -91.4,    1.0673, 0, 0, 0, 0
"BUSLVMAI47", 0.20785, 1,    128.121,   88.6,    1.0677, 2,    128.135,  -91.4,    1.0678, 0, 0, 0, 0
"BUSLVMAI48", 0.20785, 1,    127.855,   88.5,    1.0655, 2,    127.872,  -91.5,    1.0656, 0, 0, 0, 0
"BUSLVMAI49", 0.20785, 1,    128.725,  -31.0,    1.0727, 2,    128.741,  149.0,    1.0728, 0, 0, 0, 0
"BUSLVMAI50", 0.20785, 1,    127.579, -151.2,    1.0632, 2,    127.681,   28.8,     1.064, 0, 0, 0, 0
"BUSLVMAI51", 0.20785, 1,    128.367,  -31.1,    1.0697, 2,    128.383,  148.9,    1.0699, 0, 0, 0, 0
"BUSLVMAI52", 0.20785, 1,    128.128,   88.6,    1.0677, 2,    128.141,  -91.4,    1.0678, 0, 0, 0, 0
"BUSLVMAI53", 0.20785, 1,    128.113,   88.6,    1.0676, 2,    128.128,  -91.4,    1.0677, 0, 0, 0, 0
"BUSLVMAI54", 0.20785, 1,    127.679,   88.5,     1.064, 2,    127.695,  -91.6,    1.0641, 0, 0, 0, 0
"BUSLVMAI55", 0.20785, 1,    128.744,  -31.0,    1.0729, 2,     128.76,  149.0,     1.073, 0, 0, 0, 0
"BUSLVMAI56", 0.20785, 1,    127.849,   88.5,    1.0654, 2,    127.862,  -91.5,    1.0655, 0, 0, 0, 0
"BUSLVMAI57", 0.20785, 1,    128.051,   88.6,    1.0671, 2,    128.067,  -91.4,    1.0672, 0, 0, 0, 0
"BUSLVMAI58", 0.20785, 1,    128.126,   88.6,    1.0677, 2,     128.14,  -91.4,    1.0678, 0, 0, 0, 0
"BUSLVMAI59", 0.20785, 1,    128.725,  -31.0,    1.0727, 2,    128.741,  149.0,    1.0728, 0, 0, 0, 0
"BUSLVMAI60", 0.20785, 1,    128.705,  -31.0,    1.0725, 2,    128.719,  149.0,    1.0727, 0, 0, 0, 0
"BUSLVMAI61", 0.20785, 1,    128.383,  -31.1,    1.0699, 2,    128.399,  148.9,      1.07, 0, 0, 0, 0
"BUSLVMAI62", 0.20785, 1,    128.378, -151.0,    1.0698, 2,    128.392,   29.0,    1.0699, 0, 0, 0, 0
"BUSLVMAI63", 0.20785, 1,    128.517,  -31.1,     1.071, 2,    128.537,  148.9,    1.0711, 0, 0, 0, 0
"BUSLVMAI64", 0.20785, 1,    128.346, -151.0,    1.0695, 2,    128.359,   29.0,    1.0697, 0, 0, 0, 0
"BUSLVMAI65", 0.20785, 1,    128.715,  -31.0,    1.0726, 2,     128.73,  149.0,    1.0727, 0, 0, 0, 0
"BUSLVMAI66", 0.20785, 1,    128.118,   88.6,    1.0677, 2,    128.132,  -91.4,    1.0678, 0, 0, 0, 0
"BUSLVMAI67", 0.20785, 1,    128.413,  -31.1,    1.0701, 2,    128.429,  148.9,    1.0702, 0, 0, 0, 0
"BUSLVMAI68", 0.20785, 1,    128.469,  -31.1,    1.0706, 2,    128.482,  148.9,    1.0707, 0, 0, 0, 0
"BUSLVMAI69", 0.20785, 1,    128.122,   88.6,    1.0677, 2,    128.135,  -91.4,    1.0678, 0, 0, 0, 0
"BUSLVMAI70", 0.20785, 1,    127.821,   88.4,    1.0652, 2,    127.846,  -91.6,    1.0654, 0, 0, 0, 0
"BUSLVMAI71", 0.20785, 1,    128.176,  -31.2,    1.0681, 2,    128.191,  148.7,    1.0683, 0, 0, 0, 0
"BUSLVMAI72", 0.20785, 1,    128.673,  -31.0,    1.0723, 2,    128.687,  149.0,    1.0724, 0, 0, 0, 0
"BUSLVMAI73", 0.20785, 1,    128.536,  -31.1,    1.0711, 2,    128.549,  148.9,    1.0712, 0, 0, 0, 0
"BUSLVMAI74", 0.20785, 1,    128.724,  -31.0,    1.0727, 2,     128.74,  149.0,    1.0728, 0, 0, 0, 0
"BUSLVMAI75", 0.20785, 1,    128.207, -151.0,    1.0684, 2,    128.221,   29.0,    1.0685, 0, 0, 0, 0
"BUSLVMAI76", 0.20785, 1,    128.119,   88.6,    1.0677, 2,    128.132,  -91.4,    1.0678, 0, 0, 0, 0
"BUSLVMAI77", 0.20785, 1,    128.518,  -31.1,     1.071, 2,    128.532,  148.9,    1.0711, 0, 0, 0, 0
"BUSLVMAI78", 0.20785, 1,    128.659,  -31.0,    1.0722, 2,    128.672,  149.0,    1.0723, 0, 0, 0, 0
"BUSLVMAI79", 0.20785, 1,    128.058,   88.6,    1.0671, 2,    128.072,  -91.4,    1.0673, 0, 0, 0, 0
"BUSLVMAI80", 0.20785, 1,    127.553,   88.3,    1.0629, 2,    127.577,  -91.7,    1.0631, 0, 0, 0, 0
"BUSLVMAI81", 0.20785, 1,    128.118,   88.6,    1.0676, 2,    128.132,  -91.4,    1.0678, 0, 0, 0, 0
"BUSLVMAI82", 0.20785, 1,    128.049,   88.6,    1.0671, 2,    128.065,  -91.4,    1.0672, 0, 0, 0, 0
"BUSLVMAI83", 0.20785, 1,    128.513,  -31.1,    1.0709, 2,    128.533,  148.9,    1.0711, 0, 0, 0, 0
"BUSLVMAI84", 0.20785, 1,     127.93,   88.5,    1.0661, 2,    127.944,  -91.5,    1.0662, 0, 0, 0, 0
"BUSLVMAI85", 0.20785, 1,    128.412, -151.0,    1.0701, 2,    128.429,   29.0,    1.0702, 0, 0, 0, 0
"BUSLVMAI86", 0.20785, 1,    128.587,  -31.0,    1.0716, 2,    128.608,  148.9,    1.0717, 0, 0, 0, 0
"BUSLVMAI87", 0.20785, 1,    128.715,  -31.0,    1.0726, 2,    128.754,  149.0,    1.0729, 0, 0, 0, 0
"BUSLVMAI88", 0.20785, 1,    128.149,   88.6,    1.0679, 2,    128.162,  -91.4,     1.068, 0, 0, 0, 0
"BUSLVMAI89", 0.20785, 1,    128.119,   88.6,    1.0677, 2,    128.132,  -91.4,    1.0678, 0, 0, 0, 0
"BUSLVMAI90", 0.20785, 1,    127.853,   88.5,    1.0654, 2,    127.869,  -91.5,    1.0656, 0, 0, 0, 0
"BUSLVMAI91", 0.20785, 1,    128.117,   88.6,    1.0676, 2,    128.133,  -91.4,    1.0678, 0, 0, 0, 0
"BUSLVMAI92", 0.20785, 1,     128.51,  -31.1,    1.0709, 2,    128.526,  148.9,     1.071, 0, 0, 0, 0
"BUSLVMAI93", 0.20785, 1,    127.984,   88.6,    1.0665, 2,        128,  -91.4,    1.0667, 0, 0, 0, 0
"BUSLVMAI94", 0.20785, 1,    127.884,   88.5,    1.0657, 2,    127.898,  -91.5,    1.0658, 0, 0, 0, 0
"BUSLVMAI95", 0.20785, 1,    128.051,   88.6,    1.0671, 2,    128.067,  -91.4,    1.0672, 0, 0, 0, 0
"BUSLVMAI96", 0.20785, 1,    128.107,   88.6,    1.0676, 2,    128.121,  -91.4,    1.0677, 0, 0, 0, 0
"BUSLVMAI97", 0.20785, 1,    128.453, -150.9,    1.0704, 2,    128.469,   29.1,    1.0706, 0, 0, 0, 0
"BUSLVMAI98", 0.20785, 1,    128.453, -150.9,    1.0704, 2,    128.469,   29.1,    1.0706, 0, 0, 0, 0
"BUSLVMAI99", 0.20785, 1,    128.113,   88.6,    1.0676, 2,    128.127,  -91.4,    1.0677, 0, 0, 0, 0
"BUSLVMAI100", 0.20785, 1,    128.081,   88.6,    1.0673, 2,    128.095,  -91.4,    1.0675, 0, 0, 0, 0
"BUSLVMAI101", 0.20785, 1,    128.049,   88.6,    1.0671, 2,    128.065,  -91.4,    1.0672, 0, 0, 0, 0
"BUSLVMAI102", 0.20785, 1,    128.115,   88.6,    1.0676, 2,    128.132,  -91.4,    1.0678, 0, 0, 0, 0
"BUSLVMAI103", 0.20785, 1,    128.036,   88.6,     1.067, 2,    128.051,  -91.4,    1.0671, 0, 0, 0, 0
"BUSLVMAI104", 0.20785, 1,    128.017,   88.6,    1.0668, 2,    128.031,  -91.4,    1.0669, 0, 0, 0, 0
"BUSLVMAI105", 0.20785, 1,    127.908,   88.5,    1.0659, 2,    127.923,  -91.5,     1.066, 0, 0, 0, 0
"BUSLVMAI106", 0.20785, 1,    128.702,  -31.0,    1.0725, 2,    128.715,  149.0,    1.0726, 0, 0, 0, 0
"BUSLVMAI107", 0.20785, 1,     128.12,   88.6,    1.0677, 2,    128.135,  -91.4,    1.0678, 0, 0, 0, 0
"BUSLVMAI108", 0.20785, 1,    128.062,   88.6,    1.0672, 2,    128.077,  -91.4,    1.0673, 0, 0, 0, 0
"BUSLVMAI109", 0.20785, 1,     128.23,  -31.2,    1.0686, 2,     128.29,  148.8,    1.0691, 0, 0, 0, 0
"BUSLVMAI110", 0.20785, 1,    128.464,  -31.1,    1.0705, 2,     128.48,  148.9,    1.0707, 0, 0, 0, 0
"BUSLVMAI111", 0.20785, 1,    128.554,  -31.1,    1.0713, 2,     128.57,  148.9,    1.0714, 0, 0, 0, 0
"BUSLVMAI112", 0.20785, 1,    128.641,  -31.0,     1.072, 2,    128.657,  149.0,    1.0721, 0, 0, 0, 0
"BUSLVMAI113", 0.20785, 1,    128.411, -150.9,    1.0701, 2,    128.426,   29.1,    1.0702, 0, 0, 0, 0
"BUSLVMAI114", 0.20785, 1,    127.935,  -31.3,    1.0661, 2,     127.95,  148.7,    1.0663, 0, 0, 0, 0
"BUSLVMAI115", 0.20785, 1,    128.557,  -31.1,    1.0713, 2,     128.57,  148.9,    1.0714, 0, 0, 0, 0
"BUSLVMAI116", 0.20785, 1,    128.028,   88.6,    1.0669, 2,    128.041,  -91.4,     1.067, 0, 0, 0, 0
"BUSLVMAI117", 0.20785, 1,    128.347,  -31.2,    1.0696, 2,     128.37,  148.8,    1.0697, 0, 0, 0, 0
"BUSLVMAI118", 0.20785, 1,    128.395,  -31.1,      1.07, 2,    128.411,  148.9,    1.0701, 0, 0, 0, 0
"BUSLVMAI119", 0.20785, 1,     127.84,   88.5,    1.0653, 2,    127.853,  -91.5,    1.0654, 0, 0, 0, 0
"BUSLVMAI120", 0.20785, 1,    128.555,  -31.1,    1.0713, 2,     128.57,  148.9,    1.0714, 0, 0, 0, 0
"BUSLVMAI121", 0.20785, 1,    128.474, -150.9,    1.0706, 2,     128.49,   29.1,    1.0707, 0, 0, 0, 0
"BUSLVMAI122", 0.20785, 1,    128.015,   88.6,    1.0668, 2,    128.031,  -91.4,    1.0669, 0, 0, 0, 0
"BUSLVMAI123", 0.20785, 1,    128.475, -150.9,    1.0706, 2,    128.489,   29.0,    1.0707, 0, 0, 0, 0
"BUSLVMAI124", 0.20785, 1,    127.582,   88.4,    1.0632, 2,    127.624,  -91.6,    1.0635, 0, 0, 0, 0
"BUSLVMAI125", 0.20785, 1,    127.747,   88.5,    1.0646, 2,    127.761,  -91.5,    1.0647, 0, 0, 0, 0
"BUSLVMAI126", 0.20785, 1,    128.479, -150.9,    1.0707, 2,    128.493,   29.0,    1.0708, 0, 0, 0, 0
"BUSLVMAI127", 0.20785, 1,    128.021,   88.6,    1.0668, 2,    128.035,  -91.4,     1.067, 0, 0, 0, 0
"BUSLVMAI128", 0.20785, 1,    127.896, -151.2,    1.0658, 2,    127.916,   28.8,     1.066, 0, 0, 0, 0
"BUSLVMAI129", 0.20785, 1,    128.556,  -31.1,    1.0713, 2,     128.57,  148.9,    1.0714, 0, 0, 0, 0
"BUSLVMAI130", 0.20785, 1,     128.66,  -31.0,    1.0722, 2,    128.675,  149.0,    1.0723, 0, 0, 0, 0
"BUSLVMAI131", 0.20785, 1,    128.088,  -31.2,    1.0674, 2,    128.112,  148.8,    1.0676, 0, 0, 0, 0
"BUSLVMAI132", 0.20785, 1,    128.555,  -31.1,    1.0713, 2,    128.568,  148.9,    1.0714, 0, 0, 0, 0
"BUSLVMAI133", 0.20785, 1,    128.031,   88.6,    1.0669, 2,    128.049,  -91.4,    1.0671, 0, 0, 0, 0
"BUSLVMAI134", 0.20785, 1,    127.821,   88.5,    1.0652, 2,    127.834,  -91.5,    1.0653, 0, 0, 0, 0
"BUSLVMAI135", 0.20785, 1,    128.002,   88.6,    1.0667, 2,    128.018,  -91.4,    1.0668, 0, 0, 0, 0
"BUSLVMAI136", 0.20785, 1,    128.254,  -31.2,    1.0688, 2,    128.281,  148.8,     1.069, 0, 0, 0, 0
"BUSLVMAI137", 0.20785, 1,    128.215, -151.1,    1.0685, 2,    128.228,   28.9,    1.0686, 0, 0, 0, 0
"BUSLVMAI138", 0.20785, 1,    128.333, -151.0,    1.0694, 2,    128.356,   29.0,    1.0696, 0, 0, 0, 0
"BUSLVMAI139", 0.20785, 1,    128.253, -151.0,    1.0688, 2,    128.269,   29.0,    1.0689, 0, 0, 0, 0
"BUSLVMAI140", 0.20785, 1,    128.275,  -31.1,     1.069, 2,    128.291,  148.9,    1.0691, 0, 0, 0, 0
"BUSLVMAI141", 0.20785, 1,    128.479, -150.9,    1.0707, 2,    128.494,   29.0,    1.0708, 0, 0, 0, 0
"BUSLVMAI142", 0.20785, 1,    128.151, -151.1,    1.0679, 2,    128.165,   28.9,     1.068, 0, 0, 0, 0
"BUSLVMAI143", 0.20785, 1,    128.423, -151.0,    1.0702, 2,    128.439,   29.0,    1.0703, 0, 0, 0, 0
"BUSLVMAI144", 0.20785, 1,    128.018,   88.6,    1.0668, 2,    128.033,  -91.4,    1.0669, 0, 0, 0, 0
"BUSLVMAI145", 0.20785, 1,     128.63,  -31.0,    1.0719, 2,    128.645,  149.0,     1.072, 0, 0, 0, 0
"BUSLVMAI146", 0.20785, 1,    128.471, -150.9,    1.0706, 2,    128.485,   29.0,    1.0707, 0, 0, 0, 0
"BUSLVMAI147", 0.20785, 1,    128.147,  -31.2,    1.0679, 2,     128.16,  148.8,     1.068, 0, 0, 0, 0
"BUSLVMAI148", 0.20785, 1,    127.985,   88.6,    1.0665, 2,        128,  -91.4,    1.0667, 0, 0, 0, 0
"BUSLVMAI149", 0.20785, 1,    128.245, -151.0,    1.0687, 2,    128.258,   29.0,    1.0688, 0, 0, 0, 0
"BUSLVMAI150", 0.20785, 1,    128.268,  -31.2,    1.0689, 2,    128.289,  148.8,    1.0691, 0, 0, 0, 0
"BUSLVMAI151", 0.20785, 1,    128.088, -151.1,    1.0674, 2,    128.101,   28.9,    1.0675, 0, 0, 0, 0
"BUSLVMAI152", 0.20785, 1,    128.547,  -31.1,    1.0712, 2,    128.563,  148.9,    1.0714, 0, 0, 0, 0
"BUSLVMAI153", 0.20785, 1,    127.402,   88.4,    1.0617, 2,    127.418,  -91.6,    1.0618, 0, 0, 0, 0
"BUSLVMAI154", 0.20785, 1,    128.025,   88.6,    1.0669, 2,    128.041,  -91.4,     1.067, 0, 0, 0, 0
"BUSLVMAI155", 0.20785, 1,    128.259,  -31.2,    1.0688, 2,    128.274,  148.8,    1.0689, 0, 0, 0, 0
"BUSLVMAI156", 0.20785, 1,    128.557,  -31.1,    1.0713, 2,     128.57,  148.9,    1.0714, 0, 0, 0, 0
"BUSLVMAI157", 0.20785, 1,    128.084,  -31.2,    1.0674, 2,    128.101,  148.8,    1.0675, 0, 0, 0, 0
"BUSLVMAI158", 0.20785, 1,    128.438, -151.0,    1.0703, 2,    128.451,   29.0,    1.0704, 0, 0, 0, 0
"BUSLVMAI159", 0.20785, 1,    128.428, -150.9,    1.0702, 2,    128.441,   29.1,    1.0703, 0, 0, 0, 0
"BUSLVMAI160", 0.20785, 1,    128.437,  -31.1,    1.0703, 2,    128.454,  148.9,    1.0704, 0, 0, 0, 0
"BUSLVMAI161", 0.20785, 1,    128.396,  -31.1,      1.07, 2,    128.423,  148.9,    1.0702, 0, 0, 0, 0
"BUSLVMAI162", 0.20785, 1,    128.431,  -31.1,    1.0703, 2,    128.447,  148.9,    1.0704, 0, 0, 0, 0
"BUSLVMAI163", 0.20785, 1,    128.547,  -31.1,    1.0712, 2,    128.562,  148.9,    1.0714, 0, 0, 0, 0
"BUSLVMAI164", 0.20785, 1,    128.685,  -31.0,    1.0724, 2,    128.698,  149.0,    1.0725, 0, 0, 0, 0
"BUSLVMAI165", 0.20785, 1,     128.13,  -31.2,    1.0678, 2,    128.171,  148.8,    1.0681, 0, 0, 0, 0
"BUSLVMAI166", 0.20785, 1,    128.391,  -31.1,    1.0699, 2,     128.42,  148.9,    1.0702, 0, 0, 0, 0
"BUSLVMAI167", 0.20785, 1,    127.822,   88.5,    1.0652, 2,    127.837,  -91.5,    1.0653, 0, 0, 0, 0
"BUSLVMAI168", 0.20785, 1,    127.945,   88.6,    1.0662, 2,     127.96,  -91.4,    1.0663, 0, 0, 0, 0
"BUSLVMAI169", 0.20785, 1,     127.76,  -31.2,    1.0647, 2,    127.778,  148.8,    1.0648, 0, 0, 0, 0
"BUSLVMAI170", 0.20785, 1,    128.549,  -31.1,    1.0712, 2,    128.564,  148.9,    1.0714, 0, 0, 0, 0
"BUSLVMAI171", 0.20785, 1,    128.133,  -31.2,    1.0678, 2,    128.238,  148.8,    1.0687, 0, 0, 0, 0
"BUSLVMAI172", 0.20785, 1,     127.78,   88.5,    1.0648, 2,    127.794,  -91.5,     1.065, 0, 0, 0, 0
"BUSLVMAI173", 0.20785, 1,    128.015,   88.6,    1.0668, 2,    128.031,  -91.4,    1.0669, 0, 0, 0, 0
"BUSLVMAI174", 0.20785, 1,    128.342,  -31.1,    1.0695, 2,    128.367,  148.9,    1.0697, 0, 0, 0, 0
"BUSLVMAI175", 0.20785, 1,    128.299,  -31.2,    1.0692, 2,    128.313,  148.8,    1.0693, 0, 0, 0, 0
"BUSLVMAI176", 0.20785, 1,    127.945,   88.6,    1.0662, 2,    127.959,  -91.4,    1.0663, 0, 0, 0, 0
"BUSLVMAI177", 0.20785, 1,    128.002,   88.6,    1.0667, 2,    128.015,  -91.4,    1.0668, 0, 0, 0, 0
"BUSLVMAI178", 0.20785, 1,     128.43, -151.0,    1.0702, 2,    128.443,   29.0,    1.0704, 0, 0, 0, 0
"BUSLVMAI179", 0.20785, 1,    128.348, -151.0,    1.0696, 2,    128.362,   29.0,    1.0697, 0, 0, 0, 0
"BUSLVMAI180", 0.20785, 1,    128.557,  -31.1,    1.0713, 2,     128.57,  148.9,    1.0714, 0, 0, 0, 0
"BUSLVMAI181", 0.20785, 1,    128.549,  -31.1,    1.0712, 2,    128.563,  148.9,    1.0714, 0, 0, 0, 0
"BUSLVMAI182", 0.20785, 1,    128.103,  -31.3,    1.0675, 2,    128.154,  148.7,     1.068, 0, 0, 0, 0
"BUSLVMAI183", 0.20785, 1,    127.987,   88.6,    1.0666, 2,    128.001,  -91.4,    1.0667, 0, 0, 0, 0
"BUSLVMAI184", 0.20785, 1,    128.666,  -31.0,    1.0722, 2,    128.679,  149.0,    1.0723, 0, 0, 0, 0
"BUSLVMAI185", 0.20785, 1,    128.264, -151.0,    1.0689, 2,    128.277,   29.0,     1.069, 0, 0, 0, 0
"BUSLVMAI186", 0.20785, 1,    128.028,   88.6,    1.0669, 2,    128.044,  -91.4,     1.067, 0, 0, 0, 0
"BUSLVMAI187", 0.20785, 1,    127.916,   88.6,     1.066, 2,    127.929,  -91.4,    1.0661, 0, 0, 0, 0
"BUSLVMAI188", 0.20785, 1,    128.437, -150.9,    1.0703, 2,    128.453,   29.1,    1.0704, 0, 0, 0, 0
"BUSLVMAI189", 0.20785, 1,    128.552,  -31.1,    1.0713, 2,    128.568,  148.9,    1.0714, 0, 0, 0, 0
"BUSLVMAI190", 0.20785, 1,    128.431, -150.9,    1.0703, 2,    128.447,   29.1,    1.0704, 0, 0, 0, 0
"BUSLVMAI191", 0.20785, 1,    128.025,   88.6,    1.0669, 2,    128.041,  -91.4,     1.067, 0, 0, 0, 0
"BUSLVMAI192", 0.20785, 1,    128.544,  -31.1,    1.0712, 2,     128.56,  148.9,    1.0713, 0, 0, 0, 0
"BUSLVMAI193", 0.20785, 1,    128.549,  -31.1,    1.0712, 2,    128.565,  148.9,    1.0714, 0, 0, 0, 0
"BUSLVMAI194", 0.20785, 1,    127.985,   88.6,    1.0665, 2,    128.001,  -91.4,    1.0667, 0, 0, 0, 0
"BUSLVMAI195", 0.20785, 1,    128.028,   88.6,    1.0669, 2,    128.043,  -91.4,     1.067, 0, 0, 0, 0
"BUSLVMAI196", 0.20785, 1,    128.408, -150.9,    1.0701, 2,    128.425,   29.0,    1.0702, 0, 0, 0, 0
"BUSLVMAI197", 0.20785, 1,     128.39, -151.0,    1.0699, 2,    128.405,   29.0,      1.07, 0, 0, 0, 0
"BUSLVMAI198", 0.20785, 1,    128.409, -150.9,    1.0701, 2,    128.425,   29.0,    1.0702, 0, 0, 0, 0
"BUSLVMAI199", 0.20785, 1,     128.41, -150.9,    1.0701, 2,    128.425,   29.0,    1.0702, 0, 0, 0, 0
"BUSLVMAI200", 0.20785, 1,    128.542,  -31.1,    1.0712, 2,    128.558,  148.9,    1.0713, 0, 0, 0, 0
...
